test/data/9bus.raw
     0,   100.0,    32,     0,     0,    0.00 / PSS(R)E 32
 Caso do Anderson - Página 38                                
                                                             
     1,'Bus 1       ',   1.0000,  3, 9999,    1,    1,   1.075000,     0.0000
     2,'Bus 2       ',   1.0000,  2, 9999,    1,    1,   1.075000,    -1.8000
     3,'Bus 3       ',   1.0000,  2, 9999,    1,    1,   1.075000,    -1.4000
     4,'Bus 4       ',   1.0000,  1, 9999,    1,    1,   1.072000,    -4.1000
     5,'Bus 5       ',   1.0000,  1, 9999,    1,    1,   1.050000,    -7.7000
     6,'Bus 6       ',   1.0000,  1, 9999,    1,    1,   1.065000,    -6.7000
     7,'Bus 7       ',   1.0000,  1, 9999,    1,    1,   1.078000,    -4.6000
     8,'Bus 8       ',   1.0000,  1, 9999,    1,    1,   1.069000,    -6.3000
     9,'Bus 9       ',   1.0000,  1, 9999,    1,    1,   1.083000,    -3.9000
 0  / END OF BUS DATA, BEGIN LOAD DATA
     5,'1 ', 1,9999,    1,    125.000,     50.000,     0.000,       0.000,       0.000,     0.000,   1, 1
     6,'1 ', 1,9999,    1,     90.000,     30.000,     0.000,       0.000,       0.000,     0.000,   1, 1
     8,'1 ', 1,9999,    1,    100.000,     35.000,     0.000,       0.000,       0.000,     0.000,   1, 1
 0  / END OF LOAD DATA, BEGIN FIXED SHUNT DATA
 0  / END OF FIXED SHUNT DATA, BEGIN GENERATOR DATA
     1,'1 ',   142.500,     10.880,    130.400,   -130.000,    1.0750,      0,    100.000,     0.0000,     0.1553,    0.0000,    0.0000,    1.0000,  1,   100.0,     142.500,     142.500,    1,    1.000,     0,    0.000,     0,    0.000,     0,    0.000,  0,      0.000
     2,'1 ',    90.000,     -2.590,    101.200,   -101.000,    1.0750,      0,    100.000,     0.0000,     0.2215,    0.0000,    0.0000,    1.0000,  1,   100.0,      90.000,      90.000,    1,    1.000,     0,    0.000,     0,    0.000,     0,    0.000,  0,      0.000
     3,'1 ',    85.000,    -13.700,     67.400,    -67.400,    1.0750,      0,    100.000,     0.0000,     0.2766,    0.0000,    0.0000,    1.0000,  1,   100.0,      85.000,      85.000,    1,    1.000,     0,    0.000,     0,    0.000,     0,    0.000,  0,      0.000
 0  / END OF GENERATOR DATA, BEGIN BRANCH DATA
     4,     5,'01', 0.10000E-01,  0.85000E-01,   0.17600,     0.0,     0.0,     0.0,   0.00000,   0.00000,   0.00000,   0.00000,  1,  1,     0.00,   0,   1.0000
     4,     6,'01', 0.17000E-01,  0.92000E-01,   0.15800,     0.0,     0.0,     0.0,   0.00000,   0.00000,   0.00000,   0.00000,  1,  1,     0.00,   0,   1.0000
     6,     9,'01', 0.39000E-01,  0.17000E+00,   0.35800,     0.0,     0.0,     0.0,   0.00000,   0.00000,   0.00000,   0.00000,  1,  1,     0.00,   0,   1.0000
     7,     5,'01', 0.32000E-01,  0.16100E+00,   0.30600,     0.0,     0.0,     0.0,   0.00000,   0.00000,   0.00000,   0.00000,  1,  1,     0.00,   0,   1.0000
     7,     8,'01', 0.85000E-02,  0.72000E-01,   0.14900,     0.0,     0.0,     0.0,   0.00000,   0.00000,   0.00000,   0.00000,  1,  1,     0.00,   0,   1.0000
     8,     9,'01', 0.11900E-01,  0.10080E+00,   0.20900,     0.0,     0.0,     0.0,   0.00000,   0.00000,   0.00000,   0.00000,  1,  1,     0.00,   0,   1.0000
 0  / END OF BRANCH DATA, BEGIN TRANSFORMER DATA
     1,      4,      0,'01', 1, 1, 1,      0.000,      0.000, 1, '            ', 1,    0,   1.00000
 0.00000E+00,  0.57600E-01,    100.000
  1.00000,   0.00000,   0.00000,      0.00,      0.00,      0.00,  0,       0,      1.00000,      1.00000,      0.00000,      0.00000, 33,  0,   0.00000,   0.00000
  1.00000,   0.00000
     2,      7,      0,'01', 1, 1, 1,      0.000,      0.000, 1, '            ', 1,    0,   1.00000
 0.00000E+00,  0.62500E-01,    100.000
  1.00000,   0.00000,   0.00000,      0.00,      0.00,      0.00,  0,       0,      1.00000,      1.00000,      0.00000,      0.00000, 33,  0,   0.00000,   0.00000
  1.00000,   0.00000
     3,      9,      0,'01', 1, 1, 1,      0.000,      0.000, 1, '            ', 1,    0,   1.00000
 0.00000E+00,  0.58600E-01,    100.000
  1.00000,   0.00000,   0.00000,      0.00,      0.00,      0.00,  0,       0,      1.00000,      1.00000,      0.00000,      0.00000, 33,  0,   0.00000,   0.00000
  1.00000,   0.00000
 0  / END OF TRANSFORMER DATA, BEGIN AREA DATA
  9999,     0,     0.000,    10.000, 'None      '
 0  / END OF AREA DATA, BEGIN TWO-TERMINAL DC DATA
 0  / END OF TWO-TERMINAL DC DATA, BEGIN VSC DATA
 0  / END OF VSC DATA, BEGIN IMPEDANCE CORRECTION DATA
 0 / END OF IMPEDANCE CORRECTION DATA, BEGIN MULTI-TERMINAL DC DATA
 0 / END OF MULTI-TERMINAL DC DATA, BEGIN MULTI-SECTION LINE DATA
 0 / END OF MULTI-SECTION LINE DATA, BEGIN ZONE DATA
 0 / END OF ZONE DATA, BEGIN INTER-AREA TRANSFER DATA
 0 / END OF INTER-AREA TRANSFER DATA, BEGIN OWNER DATA
 0 / END OF OWNER DATA, BEGIN FACTS CONTROL DEVICE DATA
 0 / END OF FACTS CONTROL DEVICE DATA, BEGIN SWITCHED SHUNT DATA
 0 / END OF SWITCHED SHUNT DATA
Q / END OF DATA
